/*--------------------------------*- C++ -*----------------------------------*\
| =========                 |                                                 |
| \\      /  F ield         | OpenFOAM: The Open Source CFD Toolbox           |
|  \\    /   O peration     | Version:  2.0.0                                 |
|   \\  /    A nd           | Web:      www.OpenFOAM.org                      |
|    \\/     M anipulation  |                                                 |
\*---------------------------------------------------------------------------*/
FoamFile
{
    version     2.0;
    format      ascii;
    class       dictionary;
    object      blockMeshDict;
}


vertices
    (
        ( 0    0    0)    // vertex number 0
        ( 1    0    0)    // vertex number 1
        ( 1    1    0)    // vertex number 2
        ( 0    1    0)    // vertex number 3
        ( 0    0    1)    // vertex number 4
        ( 1    0    1)    // vertex number 5
        ( 1    1    1)    // vertex number 6
        ( 0    1    1)    // vertex number 7
    );

  blocks
    (
        hex (0 1 2 3 4 5 6 7)    // vertex numbers
        (10 10 10)               // numbers of cells in each direction
        simpleGrading (1 1 1)    // cell expansion ratios
    );


 boundary               // keyword
    (
        inlet              // patch name
        {
            type patch;    // patch type for patch 0
            faces
            (
                (0 4 7 3)  // block face in this patch
            );
        }                  // end of 0th patch definition
        outlet             // patch name
        {
            type patch;    // patch type for patch 1
            faces
            (
                (1 2 6 5)
            );
        }
        walls
        {
            type wall;
            faces
            (
                (0 1 5 4)
                (0 3 2 1)
                (3 7 6 2)
                (4 5 6 7)
            );
        }
    );
// ************************************************************************* //
