/*--------------------------------*- C++ -*----------------------------------*\
| =========                 |                                                 |
| \\      /  F ield         | OpenFOAM: The Open Source CFD Toolbox           |
|  \\    /   O peration     | Version:  2.0.0                                 |
|   \\  /    A nd           | Web:      www.OpenFOAM.org                      |
|    \\/     M anipulation  |                                                 |
\*---------------------------------------------------------------------------*/
FoamFile
{
    version     2.0;
    format      ascii;
    class       dictionary;
    object      blockMeshDict;
}

PI 3.14159265359;


xLength 1;
yLength 1;
zLength 1;

nCellsA 20;

a1x 0;
a1y 0;
a1z 0;

a2x $xLength;
a2y 0;
a2z 0;

a3x $xLength;
a3y $yLength;
a3z 0;

a4x 0;
a4y $yLength;
a4z 0;

a5x 0;
a5y 0;
a5z $zLength;

a6x $xLength;
a6y 0;
a6z $zLength;

a7x $xLength;
a7y $yLength;
a7z $zLength;

a8x 0;
a8y $yLength;
a8z $zLength;

vertices
    (
        name A01 ($a1x $a1y $a1z)
        name A02 ($a2x $a2y $a2z)
        name A03 ($a3x $a3y $a3z)
        name A04 ($a4x $a4y $a4z)
        name A05 ($a5x $a5y $a5z)
        name A06 ($a6x $a6y $a6z)
        name A07 ($a7x $a7y $a7z)
        name A08 ($a8x $a8y $a8z)
    
    );

  blocks
    (
        hex (A01 A02 A03 A04 A05 A06 A07 A08)    // vertex numbers
        ($nCellsA $nCellsA $nCellsA)               // numbers of cells in each direction
        simpleGrading (1 1 1)    // cell expansion ratios
    );


 boundary               // keyword
    (
        wall // patch name
        {
            type patch;    // patch type for patch 1
            faces
            (
                (A01 A04 A05 A08)  // block face in this patch
                (A02 A06 A07 A03)
                (A04 A03 A07 A08)
                (A01 A05 A06 A02)
                (A05 A06 A07 A08)
                (A01 A04 A03 A02)
            );
        }
    );
// ************************************************************************* //
