/*--------------------------------*- C++ -*----------------------------------*\
| =========                 |                                                 |
| \\      /  F ield         | OpenFOAM: The Open Source CFD Toolbox           |
|  \\    /   O peration     | Version:  2.3.x                                 |
|   \\  /    A nd           | Web:      www.OpenFOAM.org                      |
|    \\/     M anipulation  |                                                 |
\*---------------------------------------------------------------------------*/
FoamFile
{
    version     2.0;
    format      ascii;
    class       polyBoundaryMesh;
    location    "constant/polyMesh";
    object      boundary;
}
// * * * * * * * * * * * * * * * * * * * * * * * * * * * * * * * * * * * * * //

6
(
    back
    {
        type            empty;
        physicalType    patch;
        nFaces          16188;
        startFace       24124;
    }
    front
    {
        type            empty;
        physicalType    patch;
        nFaces          16188;
        startFace       40312;
    }
    left
    {
        type            patch;
        physicalType    patch;
        nFaces          79;
        startFace       56500;
    }
    top
    {
        type            patch;
        physicalType    patch;
        nFaces          79;
        startFace       56579;
    }
    right
    {
        type            patch;
        physicalType    patch;
        nFaces          79;
        startFace       56658;
    }
    bottom
    {
        type            patch;
        physicalType    patch;
        nFaces          79;
        startFace       56737;
    }
)

// ************************************************************************* //
